Circuit: * C:\Users\jbanks2\Documents\Projects\rvi_v2x_board\Hardware\Simulaton\ACTIVE ANTENNA.asc

.step ccap=4.7e-011 ind=3.3e-008
.step ccap=5.6e-011 ind=3.3e-008
.step ccap=1.5e-010 ind=3.3e-008
.step ccap=2.7e-010 ind=3.3e-008
.step ccap=3.9e-010 ind=3.3e-008
.step ccap=4.7e-010 ind=3.3e-008
.step ccap=4.7e-011 ind=4.7e-008
.step ccap=5.6e-011 ind=4.7e-008
.step ccap=1.5e-010 ind=4.7e-008
.step ccap=2.7e-010 ind=4.7e-008
.step ccap=3.9e-010 ind=4.7e-008
.step ccap=4.7e-010 ind=4.7e-008
.step ccap=4.7e-011 ind=1.2e-007
.step ccap=5.6e-011 ind=1.2e-007
.step ccap=1.5e-010 ind=1.2e-007
.step ccap=2.7e-010 ind=1.2e-007
.step ccap=3.9e-010 ind=1.2e-007
.step ccap=4.7e-010 ind=1.2e-007
.step ccap=4.7e-011 ind=2.2e-007
.step ccap=5.6e-011 ind=2.2e-007
.step ccap=1.5e-010 ind=2.2e-007
.step ccap=2.7e-010 ind=2.2e-007
.step ccap=3.9e-010 ind=2.2e-007
.step ccap=4.7e-010 ind=2.2e-007

Date: Tue Oct 27 09:28:11 2015
Total elapsed time: 0.398 seconds.

tnom = 27
temp = 27
method = trap
totiter = 0
traniter = 0
tranpoints = 0
accept = 0
rejected = 0
matrix size = 6
fillins = 0
solver = Normal

