Circuit: * C:\Users\Jesse\Documents\JopelDesigns\Projects\rvi_v2x_hardware\Simulation\ACTIVE ANTENNA.asc

.step ccap=4.7e-011
.step ccap=5.6e-011
.step ccap=1.5e-010
.step ccap=2.7e-010
.step ccap=3.9e-010
.step ccap=4.7e-010

Date: Fri Apr 21 16:09:02 2017
Total elapsed time: 0.105 seconds.

tnom = 27
temp = 27
method = trap
totiter = 0
traniter = 0
tranpoints = 0
accept = 0
rejected = 0
matrix size = 7
fillins = 0
solver = Normal

