Circuit: * C:\Users\jbanks2\Documents\Projects\OBD2_SMS\J1850.asc

Warning: Multiple definitions of model "rfn30ts6d" Type: Diode
Direct Newton iteration for .op point succeeded.

Date: Thu Jul 23 13:41:29 2015
Total elapsed time: 0.141 seconds.

tnom = 27
temp = 27
method = modified trap
totiter = 2094
traniter = 2082
tranpoints = 1042
accept = 1042
rejected = 0
matrix size = 31
fillins = 8
solver = Normal
Matrix Compiler1: 2.64 KB object code size  0.8/0.4/[0.3]
Matrix Compiler2: off  [0.3]/0.4/0.5


