Circuit: * C:\Users\jbanks2\Documents\Projects\OBD2_SMS\RTCbu.asc

WARNING: Node VP is floating.

Direct Newton iteration for .op point succeeded.
.step cs=1
.step cs=0.5
.step cs=0.1
.step cs=0.05

Date: Fri Jul 17 13:37:04 2015
Total elapsed time: 0.210 seconds.

tnom = 27
temp = 27
method = modified trap
totiter = 2153
traniter = 2150
tranpoints = 1076
accept = 1072
rejected = 4
matrix size = 1
fillins = 0
solver = Normal
Matrix Compiler1: off  0.0/0.0/[0.0]
Matrix Compiler2:       4 opcodes  0.0/[0.0]/0.0


